# Packages
 &PACKAGES
  useDiagnostics = .TRUE.,
  useKPP = .TRUE.,
  useOBCS = .TRUE.,
#  usePTRACERS =.FALSE.,
#  useFLT =.FALSE.,
 &
