#
# *******************
# Calendar Parameters
# *******************
 &CAL_NML
 TheCalendar='model',
 startDate_1=20000101,
 startDate_2=000000,
 &
